Version 4
SHEET 1 3556 1824
WIRE 448 144 -384 144
WIRE -96 192 -192 192
WIRE -752 272 -848 272
WIRE 192 272 192 256
WIRE 288 272 192 272
WIRE -384 288 -384 144
WIRE -368 288 -384 288
WIRE -256 288 -256 192
WIRE -256 288 -288 288
WIRE -208 288 -256 288
WIRE -96 304 -96 192
WIRE -96 304 -144 304
WIRE 192 304 192 272
WIRE -848 320 -848 272
WIRE -752 320 -752 272
WIRE 368 336 368 272
WIRE 368 336 224 336
WIRE 448 336 448 144
WIRE 448 336 368 336
WIRE 688 336 448 336
WIRE -96 352 -96 304
WIRE -16 352 -96 352
WIRE 112 352 64 352
WIRE 160 352 112 352
WIRE -176 384 -176 336
WIRE 192 400 192 368
WIRE -848 432 -848 400
WIRE -688 432 -848 432
WIRE 112 448 112 352
WIRE 176 448 112 448
WIRE 448 448 448 336
WIRE 448 448 256 448
WIRE 2736 480 2432 480
WIRE -848 560 -848 512
WIRE -688 560 -848 560
WIRE -848 592 -848 560
WIRE 2224 688 1552 688
WIRE -464 704 -464 672
WIRE -848 720 -848 672
WIRE 2688 736 2688 720
WIRE 2736 752 2736 480
WIRE 1968 784 1968 768
WIRE 2096 784 2096 768
WIRE 160 816 160 656
WIRE 304 816 160 816
WIRE 416 816 384 816
WIRE 2816 832 2688 832
WIRE 160 864 160 816
WIRE 1152 864 960 864
WIRE 1360 864 1152 864
WIRE 1904 864 1648 864
WIRE 2256 864 2160 864
WIRE 2432 864 2432 480
WIRE 2432 864 2256 864
WIRE -96 880 -96 352
WIRE -32 880 -96 880
WIRE 128 880 32 880
WIRE 1360 880 1328 880
WIRE 1648 880 1648 864
WIRE 1648 880 1424 880
WIRE 416 896 416 816
WIRE 416 896 192 896
WIRE 688 896 416 896
WIRE 128 912 96 912
WIRE 32 928 32 880
WIRE 2816 944 2816 832
WIRE 2944 944 2816 944
WIRE 3072 944 3024 944
WIRE 3136 944 3072 944
WIRE 3168 944 3136 944
WIRE 160 960 160 928
WIRE 1328 960 1328 880
WIRE 1360 960 1328 960
WIRE 1552 960 1552 688
WIRE 1552 960 1424 960
WIRE 1904 960 1824 960
WIRE 2224 960 2224 688
WIRE 2224 960 2160 960
WIRE 1152 1008 1152 864
WIRE 3072 1024 3072 944
WIRE 2816 1088 2816 944
WIRE 2816 1088 2688 1088
WIRE 1360 1104 1328 1104
WIRE 1472 1104 1424 1104
WIRE 2256 1104 2256 864
WIRE 2256 1104 1536 1104
WIRE 2224 1168 2224 960
WIRE 2640 1168 2224 1168
WIRE 1328 1200 1328 1104
WIRE 1360 1200 1328 1200
WIRE 1152 1216 1152 1072
WIRE 1360 1216 1152 1216
WIRE 1584 1232 1424 1232
WIRE 1824 1232 1824 960
WIRE 1824 1232 1648 1232
WIRE 3136 1344 3136 944
WIRE 3136 1408 3136 1392
WIRE 1760 1440 1488 1440
WIRE 1872 1440 1760 1440
WIRE 2112 1456 1936 1456
WIRE 2176 1456 2112 1456
WIRE 3136 1456 3136 1408
WIRE 3136 1456 2256 1456
WIRE 1904 1488 1904 1472
WIRE 3136 1488 3136 1456
WIRE 1760 1648 1760 1440
WIRE 1872 1648 1760 1648
WIRE 2112 1648 2112 1456
WIRE 2112 1648 1936 1648
FLAG 192 400 0
FLAG 160 960 0
FLAG -752 320 0
FLAG -848 720 0
FLAG -688 560 Vdd
IOPIN -688 560 BiDir
FLAG -688 432 vcm
IOPIN -688 432 BiDir
FLAG 32 1008 vcm
IOPIN 32 1008 BiDir
FLAG -176 384 0
FLAG 192 256 Vdd
IOPIN 192 256 BiDir
FLAG 160 656 Vdd
IOPIN 160 656 BiDir
FLAG 160 320 vcm
IOPIN 160 320 BiDir
FLAG -176 272 Vdd
IOPIN -176 272 BiDir
FLAG -208 320 vcm
IOPIN -208 320 BiDir
FLAG 1264 960 0
FLAG 1264 1104 0
FLAG 3072 1088 0
FLAG 688 896 Vpwn
IOPIN 688 896 BiDir
FLAG 960 864 Vpwn
IOPIN 960 864 BiDir
FLAG 1968 1040 0
FLAG 2096 1040 0
FLAG 1968 768 Vdd
IOPIN 1968 768 BiDir
FLAG 2096 768 Vdd
IOPIN 2096 768 BiDir
FLAG 2688 720 Vdd
IOPIN 2688 720 BiDir
FLAG 2688 1184 0
FLAG 3136 1568 0
FLAG 1904 1488 Vdd
IOPIN 1904 1488 BiDir
FLAG 1904 1408 0
FLAG 1488 1440 Vctrl
IOPIN 1488 1440 BiDir
FLAG 96 912 Vctrl
IOPIN 96 912 BiDir
FLAG -464 784 0
FLAG -464 672 Vref
IOPIN -464 672 BiDir
FLAG 1936 1424 Vref
IOPIN 1936 1424 BiDir
SYMBOL res 272 432 R90
WINDOW 0 0 56 VBottom 2
WINDOW 3 32 56 VTop 2
SYMATTR InstName R1
SYMATTR Value 10k
SYMBOL res -272 272 R90
WINDOW 0 0 56 VBottom 2
WINDOW 3 32 56 VTop 2
SYMATTR InstName R2
SYMATTR Value 125k
SYMBOL cap -192 176 R90
WINDOW 0 0 32 VBottom 2
WINDOW 3 32 32 VTop 2
SYMATTR InstName C1
SYMATTR Value 0.1n
SYMBOL res 80 336 R90
WINDOW 0 0 56 VBottom 2
WINDOW 3 32 56 VTop 2
SYMATTR InstName R3
SYMATTR Value 2k
SYMBOL cap 32 864 R90
WINDOW 0 0 32 VBottom 2
WINDOW 3 32 32 VTop 2
SYMATTR InstName C2
SYMATTR Value 47µ
SYMBOL res 16 912 R0
SYMATTR InstName R4
SYMATTR Value 1k
SYMBOL res -864 304 R0
SYMATTR InstName R5
SYMATTR Value 100
SYMBOL res -864 416 R0
SYMATTR InstName R6
SYMATTR Value 100
SYMBOL voltage -848 576 R0
WINDOW 123 0 0 Left 0
WINDOW 39 0 0 Left 0
SYMATTR InstName V1
SYMATTR Value 5
SYMBOL Opamps\\UniversalOpamp2 -176 304 R0
SYMATTR InstName U4
SYMBOL Comparators\\LTC6752 192 272 R0
SYMATTR InstName U6
SYMBOL Comparators\\LTC6752 160 832 R0
SYMATTR InstName U7
SYMBOL res 384 256 R90
WINDOW 0 0 56 VBottom 2
WINDOW 3 32 56 VTop 2
SYMATTR InstName R7
SYMATTR Value 10k
SYMBOL res 400 800 R90
WINDOW 0 0 56 VBottom 2
WINDOW 3 32 56 VTop 2
SYMATTR InstName R8
SYMATTR Value 10k
SYMBOL Digital\\inv 1216 1008 R90
WINDOW 3 8 60 Invisible 2
SYMATTR Value Vhigh=5 Vlow=0
SYMATTR InstName A1
SYMATTR Value2 Trise=5n Tfall=5n Td=5n
SYMBOL Digital\\inv 1584 1168 R0
WINDOW 3 8 104 Invisible 2
SYMATTR Value Vhigh=5 Vlow=0
SYMATTR InstName A2
SYMATTR Value2 Trise=5n Tfall=5n Td=5n
SYMBOL Digital\\inv 1536 1168 R180
WINDOW 3 8 4 Invisible 2
SYMATTR Value Vhigh=5 Vlow=0
SYMATTR InstName A4
SYMATTR Value2 Trise=5n Tfall=5n Td=5n
SYMBOL Digital\\inv 1424 1024 R180
WINDOW 3 8 104 Invisible 2
SYMATTR Value Vhigh=5 Vlow=0
SYMATTR InstName A5
SYMATTR Value2 Trise=5n Tfall=5n Td=5n
SYMBOL Digital\\and 1392 800 R0
WINDOW 3 16 112 Invisible 2
SYMATTR Value Vhigh=5 Vlow=0
SYMATTR InstName A6
SYMBOL Digital\\and 1392 1152 R0
WINDOW 3 16 112 Invisible 2
SYMATTR Value Vhigh=5 Vlow=0
SYMATTR InstName A7
SYMBOL cap 1328 944 R90
WINDOW 0 0 32 VBottom 2
WINDOW 3 32 32 VTop 2
SYMATTR InstName C3
SYMATTR Value 10n
SYMBOL Digital\\inv 1424 1168 R180
WINDOW 3 8 4 Invisible 2
SYMATTR Value Vhigh=5 Vlow=0
SYMATTR InstName A8
SYMATTR Value2 Trise=5n Tfall=5n Td=5n
SYMBOL cap 1328 1088 R90
WINDOW 0 0 32 VBottom 2
WINDOW 3 32 32 VTop 2
SYMATTR InstName C4
SYMATTR Value 10n
SYMBOL ind 2928 960 R270
WINDOW 0 32 56 VTop 2
WINDOW 3 5 56 VBottom 2
SYMATTR InstName L1
SYMATTR Value 100µ
SYMBOL cap 3056 1024 R0
SYMATTR InstName C5
SYMATTR Value 47µ
SYMBOL PowerProducts\\LTC1693-1 2032 912 R0
SYMATTR InstName U1
SYMBOL pmos 2736 832 R180
SYMATTR InstName M1
SYMATTR Value Si4825DY
SYMBOL nmos 2640 1088 R0
SYMATTR InstName M2
SYMATTR Value IRFZ24
SYMBOL res 3120 1472 R0
SYMATTR InstName R9
SYMATTR Value 5
SYMBOL res 2272 1440 R90
WINDOW 0 0 56 VBottom 2
WINDOW 3 32 56 VTop 2
SYMATTR InstName R10
SYMATTR Value 10k
SYMBOL cap 1936 1632 R90
WINDOW 0 0 32 VBottom 2
WINDOW 3 32 32 VTop 2
SYMATTR InstName C6
SYMATTR Value 220p
SYMBOL Opamps\\UniversalOpamp2 1904 1440 R180
SYMATTR InstName U2
SYMBOL voltage -464 688 R0
WINDOW 123 0 0 Left 0
WINDOW 39 0 0 Left 0
SYMATTR InstName V3
SYMATTR Value 2.5
SYMBOL LED 3120 1344 R0
SYMATTR InstName D1
TEXT -880 968 Left 2 !.tran 0 2s 0 20m uic
